Compound 1
 OpenBabel07112412073D

 34 34  0  0  1  0  0  0  0  0999 V2000
    0.4809    0.8817    0.2404 S   0  0  0  0  0  0  0  0  0  0  0  0
    0.3677   -0.5061   -0.9406 C   0  0  0  0  0  0  0  0  0  0  0  0
   -1.2974    1.2355    0.4568 C   0  0  0  0  0  0  0  0  0  0  0  0
   -0.0713   -1.8248   -0.2932 C   0  0  1  0  0  0  0  0  0  0  0  0
   -1.5630    2.5367    1.2257 C   0  0  0  0  0  0  0  0  0  0  0  0
   -0.2586   -2.7886   -1.3595 O   0  0  0  0  0  0  0  0  0  0  0  0
    0.9641   -2.4254    0.6661 C   0  0  1  0  0  0  0  0  0  0  0  0
   -1.4007    3.8404    0.4303 C   0  0  2  0  0  0  0  0  0  0  0  0
    0.6717   -3.8609   -1.1752 C   0  0  2  0  0  0  0  0  0  0  0  0
    0.3364   -3.2720    1.6479 O   0  0  0  0  0  0  0  0  0  0  0  0
    1.7691   -3.3139   -0.2589 C   0  0  2  0  0  0  0  0  0  0  0  0
   -2.2489    3.8165   -0.7820 N   0  3  0  0  0  0  0  0  0  0  0  0
    0.0518    4.1770    0.0718 C   0  0  0  0  0  0  0  0  0  0  0  0
    1.2037   -4.2806   -2.4206 O   0  0  0  0  0  0  0  0  0  0  0  0
    2.4724   -4.3404    0.4333 O   0  0  0  0  0  0  0  0  0  0  0  0
    0.4717    4.5063   -1.0280 O   0  0  0  0  0  0  0  0  0  0  0  0
    0.8721    4.1869    1.1425 O   0  5  0  0  0  0  0  0  0  0  0  0
    1.3296   -0.6511   -1.3862 H   0  0  0  0  0  0  0  0  0  0  0  0
   -0.3782   -0.2457   -1.6622 H   0  0  0  0  0  0  0  0  0  0  0  0
   -1.7429    0.4250    0.9949 H   0  0  0  0  0  0  0  0  0  0  0  0
   -1.7211    1.3494   -0.5191 H   0  0  0  0  0  0  0  0  0  0  0  0
   -0.9552   -1.6162    0.2725 H   0  0  0  0  0  0  0  0  0  0  0  0
   -0.8840    2.5719    2.0519 H   0  0  0  0  0  0  0  0  0  0  0  0
   -2.5953    2.4985    1.5046 H   0  0  0  0  0  0  0  0  0  0  0  0
    1.5171   -1.6779    1.1956 H   0  0  0  0  0  0  0  0  0  0  0  0
   -1.7268    4.6250    1.0807 H   0  0  0  0  0  0  0  0  0  0  0  0
    0.2030   -4.7198   -0.7422 H   0  0  0  0  0  0  0  0  0  0  0  0
   -0.1750   -3.9633    1.1991 H   0  0  0  0  0  0  0  0  0  0  0  0
    2.5536   -2.8029   -0.7770 H   0  0  0  0  0  0  0  0  0  0  0  0
   -1.9366    3.0681   -1.4007 H   0  0  0  0  0  0  0  0  0  0  0  0
   -2.1750    4.7111   -1.2663 H   0  0  0  0  0  0  0  0  0  0  0  0
   -3.2197    3.6538   -0.5146 H   0  0  0  0  0  0  0  0  0  0  0  0
    1.6417   -3.5315   -2.8541 H   0  0  0  0  0  0  0  0  0  0  0  0
    1.8445   -4.8740    0.9451 H   0  0  0  0  0  0  0  0  0  0  0  0
  1  2  1  0  0  0  0
  1  3  1  0  0  0  0
  2  4  1  0  0  0  0
  2 18  1  0  0  0  0
  2 19  1  0  0  0  0
  3  5  1  0  0  0  0
  3 20  1  0  0  0  0
  3 21  1  0  0  0  0
  4  6  1  0  0  0  0
  4  7  1  0  0  0  0
  4 22  1  1  0  0  0
  5  8  1  0  0  0  0
  5 23  1  0  0  0  0
  5 24  1  0  0  0  0
  6  9  1  0  0  0  0
  7 10  1  0  0  0  0
  7 11  1  0  0  0  0
  7 25  1  1  0  0  0
  8 12  1  0  0  0  0
  8 13  1  0  0  0  0
  8 26  1  1  0  0  0
  9 14  1  0  0  0  0
  9 11  1  0  0  0  0
  9 27  1  1  0  0  0
 10 28  1  0  0  0  0
 11 15  1  0  0  0  0
 11 29  1  6  0  0  0
 12 30  1  0  0  0  0
 12 31  1  0  0  0  0
 12 32  1  0  0  0  0
 13 16  2  0  0  0  0
 13 17  1  0  0  0  0
 14 33  1  0  0  0  0
 15 34  1  0  0  0  0
M  CHG  2  12   1  17  -1
M  END
>  <Column 1>
N[C@@H](CCSC[C@H]1OC(O)[C@H](O)[C@@H]1O)C(=O)O

>  <Total Molweight>
267.301

>  <cLogP>
-4.0517

>  <cLogS>
-0.684

>  <H-Acceptors>
7

>  <H-Donors>
5

>  <Total Surface Area>
182.94

>  <MMFF94 Energy>
92.352

$$$$
Compound 2
 OpenBabel07112412073D

 31 30  0  0  1  0  0  0  0  0999 V2000
   -2.8383    2.8383    1.7338 S   0  0  0  0  0  0  0  0  0  0  0  0
   -3.2475    1.0678    1.6829 C   0  0  0  0  0  0  0  0  0  0  0  0
   -2.0142    0.1948    1.5157 C   0  0  0  0  0  0  0  0  0  0  0  0
   -2.0198   -0.7909    0.7814 O   0  0  0  0  0  0  0  0  0  0  0  0
   -0.9379    0.5456    2.3008 N   0  3  0  0  0  0  0  0  0  0  0  0
    0.3054   -0.1962    2.3271 C   0  0  0  0  0  0  0  0  0  0  0  0
    1.3793    0.4322    1.4371 C   0  0  0  0  0  0  0  0  0  0  0  0
    1.0802    0.4025   -0.0663 C   0  0  0  0  0  0  0  0  0  0  0  0
    1.0955   -1.0142   -0.6571 C   0  0  0  0  0  0  0  0  0  0  0  0
    0.6883   -1.0332   -2.1374 C   0  0  2  0  0  0  0  0  0  0  0  0
    0.4425   -2.4319   -2.5561 N   0  3  0  0  0  0  0  0  0  0  0  0
    1.7075   -0.4138   -3.1040 C   0  0  0  0  0  0  0  0  0  0  0  0
    1.4954   -0.1797   -4.2871 O   0  0  0  0  0  0  0  0  0  0  0  0
    2.9286   -0.1797   -2.5894 O   0  5  0  0  0  0  0  0  0  0  0  0
   -3.9792    3.5631    1.8842 H   0  0  0  0  0  0  0  0  0  0  0  0
   -3.9083    0.8909    0.8601 H   0  0  0  0  0  0  0  0  0  0  0  0
   -3.7062    0.8111    2.6149 H   0  0  0  0  0  0  0  0  0  0  0  0
   -1.0182    1.3421    2.8738 H   0  0  0  0  0  0  0  0  0  0  0  0
   -1.7524    0.1004    2.6290 H   0  0  0  0  0  0  0  0  0  0  0  0
    0.1178   -1.1932    1.9871 H   0  0  0  0  0  0  0  0  0  0  0  0
    0.6694   -0.1866    3.3332 H   0  0  0  0  0  0  0  0  0  0  0  0
    2.2961   -0.0940    1.6027 H   0  0  0  0  0  0  0  0  0  0  0  0
    1.4244    1.4657    1.7106 H   0  0  0  0  0  0  0  0  0  0  0  0
    1.8181    0.9899   -0.5717 H   0  0  0  0  0  0  0  0  0  0  0  0
    0.0936    0.7935   -0.2024 H   0  0  0  0  0  0  0  0  0  0  0  0
    0.4123   -1.6248   -0.1045 H   0  0  0  0  0  0  0  0  0  0  0  0
    2.0963   -1.3865   -0.5883 H   0  0  0  0  0  0  0  0  0  0  0  0
   -0.1898   -0.4247   -2.1969 H   0  0  0  0  0  0  0  0  0  0  0  0
    1.3079   -2.9664   -2.4808 H   0  0  0  0  0  0  0  0  0  0  0  0
    0.1177   -2.4453   -3.5229 H   0  0  0  0  0  0  0  0  0  0  0  0
   -0.2674   -2.8476   -1.9531 H   0  0  0  0  0  0  0  0  0  0  0  0
  1  2  1  0  0  0  0
  1 15  1  0  0  0  0
  2  3  1  0  0  0  0
  2 16  1  0  0  0  0
  2 17  1  0  0  0  0
  3  4  2  0  0  0  0
  3  5  1  0  0  0  0
  5  6  1  0  0  0  0
  5 18  1  0  0  0  0
  5 19  1  0  0  0  0
  6  7  1  0  0  0  0
  6 20  1  0  0  0  0
  6 21  1  0  0  0  0
  7  8  1  0  0  0  0
  7 22  1  0  0  0  0
  7 23  1  0  0  0  0
  8  9  1  0  0  0  0
  8 24  1  0  0  0  0
  8 25  1  0  0  0  0
  9 10  1  0  0  0  0
  9 26  1  0  0  0  0
  9 27  1  0  0  0  0
 10 11  1  0  0  0  0
 10 12  1  0  0  0  0
 10 28  1  6  0  0  0
 11 29  1  0  0  0  0
 11 30  1  0  0  0  0
 11 31  1  0  0  0  0
 12 13  2  0  0  0  0
 12 14  1  0  0  0  0
M  CHG  3   5   1  11   1  14  -1
M  END
>  <Column 1>
N[C@@H](CCCCNC(=O)CS)C(=O)O

>  <Total Molweight>
220.292

>  <cLogP>
-2.6114

>  <cLogS>
-1.64

>  <H-Acceptors>
5

>  <H-Donors>
3

>  <Total Surface Area>
172.49

>  <MMFF94 Energy>
27.112

$$$$
Compound 3
 OpenBabel07112412073D

 33 32  0  0  1  0  0  0  0  0999 V2000
    0.5560    0.1588   -1.1918 S   0  0  0  0  0  0  0  0  0  0  0  0
   -0.1601   -1.1211   -0.0916 C   0  0  0  0  0  0  0  0  0  0  0  0
    0.9829    1.4267    0.0562 C   0  0  0  0  0  0  0  0  0  0  0  0
   -0.7954   -2.2673   -0.8960 C   0  0  2  0  0  0  0  0  0  0  0  0
    2.2031    1.0216    0.8868 C   0  0  0  0  0  0  0  0  0  0  0  0
    0.1764   -2.8452   -1.7966 O   0  0  0  0  0  0  0  0  0  0  0  0
   -2.0447   -1.8910   -1.7155 C   0  0  1  0  0  0  0  0  0  0  0  0
    2.6575    2.1087    1.8717 C   0  0  2  0  0  0  0  0  0  0  0  0
   -2.2996   -2.9230   -2.6888 O   0  0  0  0  0  0  0  0  0  0  0  0
   -3.2703   -1.7380   -0.8109 C   0  0  0  0  0  0  0  0  0  0  0  0
    1.5789    2.3970    2.8396 N   0  3  0  0  0  0  0  0  0  0  0  0
    3.1130    3.4062    1.1861 C   0  0  0  0  0  0  0  0  0  0  0  0
   -3.2246   -1.4780    0.3901 O   0  0  0  0  0  0  0  0  0  0  0  0
   -4.4582   -1.8695   -1.4841 N   0  0  0  0  0  0  0  0  0  0  0  0
    2.9319    4.5422    1.5996 O   0  0  0  0  0  0  0  0  0  0  0  0
    3.8442    3.2035    0.0734 O   0  5  0  0  0  0  0  0  0  0  0  0
   -5.6504   -1.7354   -0.7449 O   0  0  0  0  0  0  0  0  0  0  0  0
   -0.9111   -0.6702    0.5229 H   0  0  0  0  0  0  0  0  0  0  0  0
    0.6285   -1.5284    0.5060 H   0  0  0  0  0  0  0  0  0  0  0  0
    0.1479    1.5621    0.7114 H   0  0  0  0  0  0  0  0  0  0  0  0
    1.2192    2.3337   -0.4599 H   0  0  0  0  0  0  0  0  0  0  0  0
   -1.1194   -2.9632   -0.1506 H   0  0  0  0  0  0  0  0  0  0  0  0
    3.0121    0.8085    0.2197 H   0  0  0  0  0  0  0  0  0  0  0  0
    1.9217    0.1674    1.4664 H   0  0  0  0  0  0  0  0  0  0  0  0
    0.4421   -2.1830   -2.4537 H   0  0  0  0  0  0  0  0  0  0  0  0
   -1.8636   -0.9554   -2.2021 H   0  0  0  0  0  0  0  0  0  0  0  0
    3.5147    1.7190    2.3799 H   0  0  0  0  0  0  0  0  0  0  0  0
   -2.4618   -3.7640   -2.2334 H   0  0  0  0  0  0  0  0  0  0  0  0
    0.7678    2.7676    2.3444 H   0  0  0  0  0  0  0  0  0  0  0  0
    1.9061    3.0844    3.5185 H   0  0  0  0  0  0  0  0  0  0  0  0
    1.3183    1.5381    3.3241 H   0  0  0  0  0  0  0  0  0  0  0  0
   -4.4772   -2.0515   -2.4514 H   0  0  0  0  0  0  0  0  0  0  0  0
   -5.4364   -1.5597    0.1847 H   0  0  0  0  0  0  0  0  0  0  0  0
  1  2  1  0  0  0  0
  1  3  1  0  0  0  0
  2  4  1  0  0  0  0
  2 18  1  0  0  0  0
  2 19  1  0  0  0  0
  3  5  1  0  0  0  0
  3 20  1  0  0  0  0
  3 21  1  0  0  0  0
  4  6  1  0  0  0  0
  4  7  1  0  0  0  0
  4 22  1  1  0  0  0
  5  8  1  0  0  0  0
  5 23  1  0  0  0  0
  5 24  1  0  0  0  0
  6 25  1  0  0  0  0
  7  9  1  0  0  0  0
  7 10  1  0  0  0  0
  7 26  1  6  0  0  0
  8 11  1  0  0  0  0
  8 12  1  0  0  0  0
  8 27  1  1  0  0  0
  9 28  1  0  0  0  0
 10 13  2  0  0  0  0
 10 14  1  0  0  0  0
 11 29  1  0  0  0  0
 11 30  1  0  0  0  0
 11 31  1  0  0  0  0
 12 15  2  0  0  0  0
 12 16  1  0  0  0  0
 14 17  1  0  0  0  0
 14 32  1  0  0  0  0
 17 33  1  0  0  0  0
M  CHG  2  11   1  16  -1
M  END
>  <Column 1>
N[C@@H](CCSC[C@H](O)[C@@H](O)C(=O)NO)C(=O)O

>  <Total Molweight>
268.289

>  <cLogP>
-4.816

>  <cLogS>
-0.775

>  <H-Acceptors>
8

>  <H-Donors>
6

>  <Total Surface Area>
190.65

>  <MMFF94 Energy>
101.44

$$$$
Compound 4
 OpenBabel07112412073D

 39 39  0  0  1  0  0  0  0  0999 V2000
   -3.0587   -5.0233   -1.8814 O   0  0  0  0  0  0  0  0  0  0  0  0
   -2.2855   -4.1663   -1.4715 C   0  0  0  0  0  0  0  0  0  0  0  0
   -1.0007   -4.1873   -1.8682 O   0  5  0  0  0  0  0  0  0  0  0  0
   -2.6633   -3.0445   -0.4888 C   0  0  1  0  0  0  0  0  0  0  0  0
   -3.1985   -3.6751    0.7390 N   0  3  0  0  0  0  0  0  0  0  0  0
   -1.5150   -2.1010   -0.1000 C   0  0  0  0  0  0  0  0  0  0  0  0
   -1.1706   -1.1113   -1.2243 C   0  0  0  0  0  0  0  0  0  0  0  0
    0.1066   -0.2946   -0.9529 C   0  0  1  0  0  0  0  0  0  0  0  0
    0.3983    0.4709   -2.1707 N   0  3  0  0  0  0  0  0  0  0  0  0
   -0.0278    0.6550    0.2545 C   0  0  0  0  0  0  0  0  0  0  0  0
    1.2971    1.3134    0.6671 C   0  0  1  0  0  0  0  0  0  0  0  0
    1.8197    2.1589   -0.3785 O   0  0  0  0  0  0  0  0  0  0  0  0
    1.1422    2.1941    1.9080 C   0  0  1  0  0  0  0  0  0  0  0  0
    2.2577    3.3843    0.2161 C   0  0  2  0  0  0  0  0  0  0  0  0
    1.2569    1.4531    3.1181 O   0  0  0  0  0  0  0  0  0  0  0  0
    2.2847    3.1787    1.7328 C   0  0  2  0  0  0  0  0  0  0  0  0
    1.3225    4.3895   -0.1231 O   0  0  0  0  0  0  0  0  0  0  0  0
    3.5003    2.5504    2.1799 O   0  0  0  0  0  0  0  0  0  0  0  0
   -3.3802   -2.4304   -0.9925 H   0  0  0  0  0  0  0  0  0  0  0  0
   -2.4723   -4.2452    1.1727 H   0  0  0  0  0  0  0  0  0  0  0  0
   -3.9954   -4.2647    0.4988 H   0  0  0  0  0  0  0  0  0  0  0  0
   -3.4965   -2.9499    1.3915 H   0  0  0  0  0  0  0  0  0  0  0  0
   -0.6474   -2.6870    0.1210 H   0  0  0  0  0  0  0  0  0  0  0  0
   -1.8295   -1.5344    0.7514 H   0  0  0  0  0  0  0  0  0  0  0  0
   -1.9890   -0.4318   -1.3401 H   0  0  0  0  0  0  0  0  0  0  0  0
   -0.9941   -1.6877   -2.1083 H   0  0  0  0  0  0  0  0  0  0  0  0
    0.9015   -0.9670   -0.7060 H   0  0  0  0  0  0  0  0  0  0  0  0
   -0.3801    1.0984   -2.3725 H   0  0  0  0  0  0  0  0  0  0  0  0
    0.5291   -0.1709   -2.9526 H   0  0  0  0  0  0  0  0  0  0  0  0
    1.2486    1.0172   -2.0334 H   0  0  0  0  0  0  0  0  0  0  0  0
   -0.4008    0.0946    1.0862 H   0  0  0  0  0  0  0  0  0  0  0  0
   -0.6927    1.4413   -0.0362 H   0  0  0  0  0  0  0  0  0  0  0  0
    1.9637    0.5011    0.8689 H   0  0  0  0  0  0  0  0  0  0  0  0
    0.1800    2.6554    1.9869 H   0  0  0  0  0  0  0  0  0  0  0  0
    3.2298    3.6709   -0.1271 H   0  0  0  0  0  0  0  0  0  0  0  0
    2.1111    0.9939    3.1363 H   0  0  0  0  0  0  0  0  0  0  0  0
    2.2129    4.0965    2.2781 H   0  0  0  0  0  0  0  0  0  0  0  0
    0.4413    4.1296    0.1881 H   0  0  0  0  0  0  0  0  0  0  0  0
    3.6182    1.7071    1.7154 H   0  0  0  0  0  0  0  0  0  0  0  0
  1  2  2  0  0  0  0
  2  3  1  0  0  0  0
  2  4  1  0  0  0  0
  4  5  1  0  0  0  0
  4  6  1  0  0  0  0
  4 19  1  6  0  0  0
  5 20  1  0  0  0  0
  5 21  1  0  0  0  0
  5 22  1  0  0  0  0
  6  7  1  0  0  0  0
  6 23  1  0  0  0  0
  6 24  1  0  0  0  0
  7  8  1  0  0  0  0
  7 25  1  0  0  0  0
  7 26  1  0  0  0  0
  8  9  1  0  0  0  0
  8 10  1  0  0  0  0
  8 27  1  1  0  0  0
  9 28  1  0  0  0  0
  9 29  1  0  0  0  0
  9 30  1  0  0  0  0
 10 11  1  0  0  0  0
 10 31  1  0  0  0  0
 10 32  1  0  0  0  0
 11 12  1  0  0  0  0
 11 13  1  0  0  0  0
 11 33  1  1  0  0  0
 12 14  1  0  0  0  0
 13 15  1  0  0  0  0
 13 16  1  0  0  0  0
 13 34  1  6  0  0  0
 14 17  1  0  0  0  0
 14 16  1  0  0  0  0
 14 35  1  6  0  0  0
 15 36  1  0  0  0  0
 16 18  1  0  0  0  0
 16 37  1  1  0  0  0
 17 38  1  0  0  0  0
 18 39  1  0  0  0  0
M  CHG  3   3  -1   5   1   9   1
M  END
>  <Column 1>
NC(CC[C@H](N)C(=O)O)C[C@H]1O[C@@H](O)[C@H](O)[C@@H]1O

>  <Total Molweight>
264.277

>  <cLogP>
-6.4811

>  <cLogS>
-0.564

>  <H-Acceptors>
8

>  <H-Donors>
6

>  <Total Surface Area>
186.47

>  <MMFF94 Energy>
78.133

$$$$
Compound 5
 OpenBabel07112412073D

 20 19  0  0  1  0  0  0  0  0999 V2000
   -0.3960    2.6954    0.7129 S   0  0  0  0  0  0  0  0  0  0  0  0
   -0.3755    0.8680    0.7422 C   0  0  0  0  0  0  0  0  0  0  0  0
   -1.4079    2.9595   -0.7639 C   0  0  0  0  0  0  0  0  0  0  0  0
    0.5832    0.2982   -0.3064 C   0  0  0  0  0  0  0  0  0  0  0  0
    0.6600   -1.2342   -0.3028 C   0  0  2  0  0  0  0  0  0  0  0  0
   -0.6684   -1.8255   -0.5759 N   0  3  0  0  0  0  0  0  0  0  0  0
    1.2485   -1.7864    1.0036 C   0  0  0  0  0  0  0  0  0  0  0  0
    2.0094   -1.2155    1.7672 O   0  0  0  0  0  0  0  0  0  0  0  0
    0.8962   -3.0734    1.2352 O   0  5  0  0  0  0  0  0  0  0  0  0
   -1.3627    0.5064    0.5430 H   0  0  0  0  0  0  0  0  0  0  0  0
   -0.0406    0.5526    1.7083 H   0  0  0  0  0  0  0  0  0  0  0  0
   -1.5243    4.0096   -0.9334 H   0  0  0  0  0  0  0  0  0  0  0  0
   -2.3696    2.5124   -0.6220 H   0  0  0  0  0  0  0  0  0  0  0  0
   -0.9282    2.5127   -1.6096 H   0  0  0  0  0  0  0  0  0  0  0  0
    1.5620    0.6861   -0.1156 H   0  0  0  0  0  0  0  0  0  0  0  0
    0.2083    0.5906   -1.2650 H   0  0  0  0  0  0  0  0  0  0  0  0
    1.3285   -1.5177   -1.0887 H   0  0  0  0  0  0  0  0  0  0  0  0
   -1.3166   -1.5629    0.1666 H   0  0  0  0  0  0  0  0  0  0  0  0
   -0.5872   -2.8416   -0.6127 H   0  0  0  0  0  0  0  0  0  0  0  0
   -1.0172   -1.4797   -1.4698 H   0  0  0  0  0  0  0  0  0  0  0  0
  1  2  1  0  0  0  0
  1  3  1  0  0  0  0
  2  4  1  0  0  0  0
  2 10  1  0  0  0  0
  2 11  1  0  0  0  0
  3 12  1  0  0  0  0
  3 13  1  0  0  0  0
  3 14  1  0  0  0  0
  4  5  1  0  0  0  0
  4 15  1  0  0  0  0
  4 16  1  0  0  0  0
  5  6  1  0  0  0  0
  5  7  1  0  0  0  0
  5 17  1  6  0  0  0
  6 18  1  0  0  0  0
  6 19  1  0  0  0  0
  6 20  1  0  0  0  0
  7  8  2  0  0  0  0
  7  9  1  0  0  0  0
M  CHG  2   6   1   9  -1
M  END
>  <Column 1>
CSCC[C@H](N)C(=O)O

>  <Total Molweight>
149.213

>  <cLogP>
-2.3875

>  <cLogS>
-1.051

>  <H-Acceptors>
3

>  <H-Donors>
2

>  <Total Surface Area>
115.89

>  <MMFF94 Energy>
23.911

$$$$
Compound 6
 OpenBabel07112412073D

 28 27  0  0  1  0  0  0  0  0999 V2000
    3.2491    0.1545    1.2368 O   0  0  0  0  0  0  0  0  0  0  0  0
    2.4097    0.2150    2.1212 C   0  0  0  0  0  0  0  0  0  0  0  0
    2.5975    1.0460    3.1749 O   0  5  0  0  0  0  0  0  0  0  0  0
    1.1329   -0.6287    2.2511 C   0  0  1  0  0  0  0  0  0  0  0  0
    0.0458    0.1561    2.8705 N   0  3  0  0  0  0  0  0  0  0  0  0
    0.6913   -1.2248    0.9071 C   0  0  0  0  0  0  0  0  0  0  0  0
    0.2144   -0.1922   -0.1253 C   0  0  0  0  0  0  0  0  0  0  0  0
   -0.1290   -0.8681   -1.4566 C   0  0  0  0  0  0  0  0  0  0  0  0
   -0.4969    0.1233   -2.5633 C   0  0  0  0  0  0  0  0  0  0  0  0
   -1.7807    0.7756   -2.3488 N   0  3  0  0  0  0  0  0  0  0  0  0
   -1.7445    1.9212   -1.5369 O   0  0  0  0  0  0  0  0  0  0  0  0
   -3.0019    0.2481   -2.6561 C   0  0  0  0  0  0  0  0  0  0  0  0
   -3.1995   -0.7936   -3.2697 O   0  0  0  0  0  0  0  0  0  0  0  0
    1.3618   -1.4525    2.8944 H   0  0  0  0  0  0  0  0  0  0  0  0
   -0.1867    0.9475    2.2704 H   0  0  0  0  0  0  0  0  0  0  0  0
    0.3502    0.4984    3.7819 H   0  0  0  0  0  0  0  0  0  0  0  0
   -0.7769   -0.4355    2.9870 H   0  0  0  0  0  0  0  0  0  0  0  0
   -0.1121   -1.9068    1.0925 H   0  0  0  0  0  0  0  0  0  0  0  0
    1.5546   -1.6970    0.4868 H   0  0  0  0  0  0  0  0  0  0  0  0
    0.9911    0.5258   -0.2871 H   0  0  0  0  0  0  0  0  0  0  0  0
   -0.6650    0.2868    0.2516 H   0  0  0  0  0  0  0  0  0  0  0  0
   -0.9590   -1.5249   -1.2996 H   0  0  0  0  0  0  0  0  0  0  0  0
    0.7457   -1.3928   -1.7799 H   0  0  0  0  0  0  0  0  0  0  0  0
   -0.5354   -0.4047   -3.4932 H   0  0  0  0  0  0  0  0  0  0  0  0
    0.2510    0.8885   -2.5647 H   0  0  0  0  0  0  0  0  0  0  0  0
   -0.8841    0.9043   -1.9630 H   0  0  0  0  0  0  0  0  0  0  0  0
   -2.6186    2.3417   -1.5318 H   0  0  0  0  0  0  0  0  0  0  0  0
   -3.8330    0.7740   -2.3435 H   0  0  0  0  0  0  0  0  0  0  0  0
  1  2  2  0  0  0  0
  2  3  1  0  0  0  0
  2  4  1  0  0  0  0
  4  5  1  0  0  0  0
  4  6  1  0  0  0  0
  4 14  1  1  0  0  0
  5 15  1  0  0  0  0
  5 16  1  0  0  0  0
  5 17  1  0  0  0  0
  6  7  1  0  0  0  0
  6 18  1  0  0  0  0
  6 19  1  0  0  0  0
  7  8  1  0  0  0  0
  7 20  1  0  0  0  0
  7 21  1  0  0  0  0
  8  9  1  0  0  0  0
  8 22  1  0  0  0  0
  8 23  1  0  0  0  0
  9 10  1  0  0  0  0
  9 24  1  0  0  0  0
  9 25  1  0  0  0  0
 10 11  1  0  0  0  0
 10 12  1  0  0  0  0
 10 26  1  0  0  0  0
 11 27  1  0  0  0  0
 12 13  2  0  0  0  0
 12 28  1  0  0  0  0
M  CHG  3   3  -1   5   1  10   1
M  END
>  <Column 1>
N[C@@H](CCCCN(O)C=O)C(=O)O

>  <Total Molweight>
190.198

>  <cLogP>
-3.3461

>  <cLogS>
-0.93

>  <H-Acceptors>
6

>  <H-Donors>
3

>  <Total Surface Area>
149.85

>  <MMFF94 Energy>
43.771

$$$$
Compound 7
 OpenBabel07112412073D

 19 18  0  0  1  0  0  0  0  0999 V2000
    0.0000   -2.0844    1.6209 O   0  0  0  0  0  0  0  0  0  0  0  0
    0.3958   -0.9623    1.3082 C   0  0  0  0  0  0  0  0  0  0  0  0
    0.7428   -0.0204    2.2420 N   0  0  0  0  0  0  0  0  0  0  0  0
    0.5579   -0.5100   -0.1452 C   0  0  2  0  0  0  0  0  0  0  0  0
    0.6237   -0.3816    3.5995 O   0  0  0  0  0  0  0  0  0  0  0  0
    1.8192    0.1387   -0.3141 O   0  0  0  0  0  0  0  0  0  0  0  0
   -0.5897    0.4347   -0.5353 C   0  0  2  0  0  0  0  0  0  0  0  0
   -1.8615   -0.2371   -0.5256 O   0  0  0  0  0  0  0  0  0  0  0  0
   -0.3962    1.0335   -1.9341 C   0  0  0  0  0  0  0  0  0  0  0  0
   -1.5092    1.8708   -2.2542 O   0  0  0  0  0  0  0  0  0  0  0  0
    1.0622    0.8719    1.9754 H   0  0  0  0  0  0  0  0  0  0  0  0
    0.5242   -1.3670   -0.7850 H   0  0  0  0  0  0  0  0  0  0  0  0
    0.2961   -1.2923    3.6642 H   0  0  0  0  0  0  0  0  0  0  0  0
    1.8615    0.9182    0.2616 H   0  0  0  0  0  0  0  0  0  0  0  0
   -0.5770    1.2135    0.1984 H   0  0  0  0  0  0  0  0  0  0  0  0
   -1.8609   -0.9401   -1.1940 H   0  0  0  0  0  0  0  0  0  0  0  0
   -0.3258    0.2441   -2.6530 H   0  0  0  0  0  0  0  0  0  0  0  0
    0.5024    1.6141   -1.9514 H   0  0  0  0  0  0  0  0  0  0  0  0
   -2.3243    1.3451   -2.2388 H   0  0  0  0  0  0  0  0  0  0  0  0
  1  2  2  0  0  0  0
  2  3  1  0  0  0  0
  2  4  1  0  0  0  0
  3  5  1  0  0  0  0
  3 11  1  0  0  0  0
  4  6  1  0  0  0  0
  4  7  1  0  0  0  0
  4 12  1  6  0  0  0
  5 13  1  0  0  0  0
  6 14  1  0  0  0  0
  7  8  1  0  0  0  0
  7  9  1  0  0  0  0
  7 15  1  1  0  0  0
  8 16  1  0  0  0  0
  9 10  1  0  0  0  0
  9 17  1  0  0  0  0
  9 18  1  0  0  0  0
 10 19  1  0  0  0  0
M  END
>  <Column 1>
O=C(NO)[C@H](O)[C@H](O)CO

>  <Total Molweight>
151.117

>  <cLogP>
-2.875

>  <cLogS>
0.031

>  <H-Acceptors>
6

>  <H-Donors>
5

>  <Total Surface Area>
106.87

>  <MMFF94 Energy>
90.051

$$$$
