ligand_H1D.pdb|ligand_H1D|sdf|1|dock4
  -GOLD-   6122416133D 1   1.00000     0.00000

 33 32  0  0  0  0  0  0  0  0  3 V2000
  -26.5494   30.5639  -19.2986 O   0  0  0  0  0  0  0  0  0  0  0  0
  -26.1765   29.8199  -18.3648 C   0  0  0  0  0  0  0  0  0  0  0  0
  -26.7856   28.8170  -17.9365 O   0  5  0  0  0  0  0  0  0  0  0  0
  -24.8497   30.1730  -17.6864 C   0  0  1  0  0  0  0  0  0  0  0  0
  -23.7630   30.1303  -18.6757 N   0  3  0  0  0  0  0  0  0  0  0  0
  -24.9229   31.5604  -17.0434 C   0  0  0  0  0  0  0  0  0  0  0  0
  -23.5547   32.0648  -16.5769 C   0  0  0  0  0  0  0  0  0  0  0  0
  -23.3661   33.8799  -16.7166 S   0  0  0  0  0  0  0  0  0  0  0  0
  -21.6485   34.0815  -16.1167 C   0  0  0  0  0  0  0  0  0  0  0  0
  -20.6455   34.1579  -17.2680 C   0  0  1  0  0  0  0  0  0  0  0  0
  -20.6639   35.4874  -17.7962 O   0  0  0  0  0  0  0  0  0  0  0  0
  -19.2215   33.8231  -16.8160 C   0  0  1  0  0  0  0  0  0  0  0  0
  -19.1433   32.4464  -16.4382 O   0  0  0  0  0  0  0  0  0  0  0  0
  -18.2700   34.0693  -17.9883 C   0  0  0  0  0  0  0  0  0  0  0  0
  -17.2673   34.7680  -17.8488 O   0  0  0  0  0  0  0  0  0  0  0  0
  -18.6073   33.4675  -19.1249 N   0  0  0  0  0  0  0  0  0  0  0  0
  -17.8311   33.6129  -20.2327 O   0  0  0  0  0  0  0  0  0  0  0  0
  -24.6558   29.4566  -16.9156 H   0  0  0  0  0  0  0  0  0  0  0  0
  -23.9807   29.4356  -19.3902 H   0  0  0  0  0  0  0  0  0  0  0  0
  -22.8903   29.8787  -18.2114 H   0  0  0  0  0  0  0  0  0  0  0  0
  -23.6640   31.0470  -19.1118 H   0  0  0  0  0  0  0  0  0  0  0  0
  -25.5772   31.5124  -16.1981 H   0  0  0  0  0  0  0  0  0  0  0  0
  -25.2851   32.2426  -17.7839 H   0  0  0  0  0  0  0  0  0  0  0  0
  -22.7991   31.5979  -17.1735 H   0  0  0  0  0  0  0  0  0  0  0  0
  -23.4614   31.8153  -15.5405 H   0  0  0  0  0  0  0  0  0  0  0  0
  -21.5862   34.9829  -15.5438 H   0  0  0  0  0  0  0  0  0  0  0  0
  -21.4038   33.2269  -15.5212 H   0  0  0  0  0  0  0  0  0  0  0  0
  -20.9299   33.4385  -18.0074 H   0  0  0  0  0  0  0  0  0  0  0  0
  -21.0555   36.0891  -17.1438 H   0  0  0  0  0  0  0  0  0  0  0  0
  -18.9557   34.4351  -15.9795 H   0  0  0  0  0  0  0  0  0  0  0  0
  -18.4754   32.3394  -15.7429 H   0  0  0  0  0  0  0  0  0  0  0  0
  -19.4212   32.9150  -19.1649 H   0  0  0  0  0  0  0  0  0  0  0  0
  -18.3909   33.5918  -21.0247 H   0  0  0  0  0  0  0  0  0  0  0  0
  1  2  2  0  0  0  0
  2  3  1  0  0  0  0
  4  2  1  0  0  0  0
  4  5  1  0  0  0  0
  4 18  1  0  0  0  0
  5 19  1  0  0  0  0
  5 20  1  0  0  0  0
  5 21  1  0  0  0  0
  6  4  1  0  0  0  0
  6  7  1  0  0  0  0
  6 22  1  0  0  0  0
  6 23  1  0  0  0  0
  7 24  1  0  0  0  0
  7 25  1  0  0  0  0
  8  7  1  0  0  0  0
  9  8  1  0  0  0  0
  9 26  1  0  0  0  0
  9 27  1  0  0  0  0
 10  9  1  0  0  0  0
 10 28  1  0  0  0  0
 11 10  1  0  0  0  0
 11 29  1  0  0  0  0
 12 10  1  0  0  0  0
 12 13  1  0  0  0  0
 12 30  1  0  0  0  0
 13 31  1  0  0  0  0
 14 12  1  0  0  0  0
 15 14  2  0  0  0  0
 16 14  1  0  0  0  0
 16 32  1  0  0  0  0
 17 16  1  0  0  0  0
 17 33  1  0  0  0  0
M  CHG  1   3  -1
M  CHG  1   5   1
M  END
> <Gold.Version>
5.8.1

> <Gold.Id.Protein>
ID|2FQT|mol2

> <Gold.PLP.Fitness>
79.7889

> <Gold.PLP.PLP>
-40.8754

> <Gold.PLP.part.hbond>
-7.9436

> <Gold.PLP.part.metal>
-2.0000

> <Gold.PLP.part.buried>
-4.5053

> <Gold.PLP.part.nonpolar>
-28.5282

> <Gold.PLP.part.repulsive>
0.3535

> <Gold.PLP.ligand.clash>
0.0000

> <Gold.PLP.ligand.torsion>
0.8909

> <Gold.PLP.Chemscore.Hbond>
5.4779

> <Gold.PLP.Chemscore.CHOScore>
0.0000

> <Gold.PLP.Chemscore.Metal>
3.9902

> <Gold.Chemscore.Hbonds>
donor molecule, donor type, donor heavy atom, donor atom, acceptor molecule, acceptor atom, score
      L1  H     5    21       P1  1244  1.00
      L1  H    11    29       P1  1223  0.62
      L1  H    13    31       P1   606  0.25
      L1  H    16    32       P1  1912  0.98
      L1  H    17    33       P1  1237  0.98
      P1  H  1239  3336       L1    11  1.00
      P1  H  1466  3954       L1    15  0.65
      P1  M  1222  1222       L1     1  1.99
      P1  M  1222  1222       L1     3  2.00

> <Gold.PLP.Chemscore.Internal.Correction>
0.3204

> <Gold.Protein.RotatedTorsions>
[ 3412  950  949  948 ] final   78.18 input   60.00 | X-H torsion
[ 3476 1244 1243 1240 ] final  -47.65 input   60.00 | X-H torsion
[ 2649 1223 1224 1225 ] final   54.32 input   60.00 | X-H torsion
[ 4380 1912 1911 1909 ] final  -82.34 input   60.00 | X-H torsion
[ 3084  621  620  617 ] final  -90.15 input   60.00 | X-H torsion

> <Gold.Protein.ActiveResidues>
 HIS54   GLU57   HIS58   ALA61   PHE62   ILE64   ARG65   ASP75   ILE76   ILE77  
 ASP78   ILE79   SER80   PRO81   ILE118  PRO119  ALA120  ALA121  ASN122  LYS124 
 GLN125  CYS126  GLY127  CO701   VAL4    GLU5    SER6    PHE7    GLU8    LEU9   
 HIS11   ARG20   HIS21   CYS22   GLY23   VAL24   HIS25   LYS35   ARG39   MET82  
 GLY83   CYS84   TYR89  

> <Gold.Protein.RotatedAtoms>
  -20.1702   38.4272  -17.3512 H   0  0  0  0  0  0  0  0  0  0  0  0  # atno 2649 bound_to 1223
  -21.2343   38.5729  -16.0889 H   0  0  0  0  0  0  0  0  0  0  0  0  # atno 2650 bound_to 1223
  -19.5879   27.7386  -13.9589 H   0  0  0  0  0  0  0  0  0  0  0  0  # atno 3084 bound_to 621 
  -27.9258   37.5737  -28.6115 H   0  0  0  0  0  0  0  0  0  0  0  0  # atno 3412 bound_to 950 
  -27.9455   38.9805  -29.4877 H   0  0  0  0  0  0  0  0  0  0  0  0  # atno 3413 bound_to 950 
  -28.9592   38.7986  -28.1889 H   0  0  0  0  0  0  0  0  0  0  0  0  # atno 3414 bound_to 950 
  -24.2557   32.6271  -20.9473 H   0  0  0  0  0  0  0  0  0  0  0  0  # atno 3476 bound_to 1244
  -20.7985   30.6603  -20.2796 H   0  0  0  0  0  0  0  0  0  0  0  0  # atno 4380 bound_to 1912
  -23.7953   31.7410  -19.6625 LP  0  0  0  0  0  0  0  0  0  0  0  0  # atno 4866 bound_to 1244
  -22.9380   31.6779  -21.0509 LP  0  0  0  0  0  0  0  0  0  0  0  0  # atno 4867 bound_to 1244
  -21.2102   37.2022  -16.9985 LP  0  0  0  0  0  0  0  0  0  0  0  0  # atno 4874 bound_to 1223
  -19.7053   31.7911  -19.8619 LP  0  0  0  0  0  0  0  0  0  0  0  0  # atno 4875 bound_to 1912
  -20.9291   31.4198  -18.8464 LP  0  0  0  0  0  0  0  0  0  0  0  0  # atno 4876 bound_to 1912
  -18.0301   27.6250  -13.5023 LP  0  0  0  0  0  0  0  0  0  0  0  0  # atno 4881 bound_to 621 
  -18.9588   28.8492  -12.9495 LP  0  0  0  0  0  0  0  0  0  0  0  0  # atno 4882 bound_to 621 

$$$$
